
  EPA STORM WATER MANAGEMENT MODEL - VERSION 5.2 (Build 5.2.3)
  ------------------------------------------------------------

  PPD2012220 - 14646 ouvrages de surverse 2012 
  reseaux mineurs eaux usees et pluviale tributaires du regulateur de l'Hopital U047 
  {Charles Berube - 2020.04.29} Modification à la vanne U055 Prince-Édouard, calibration du coefficient de débit sur l'événement du 13-14 avril 2020 ayant causé un déversement au collecteur St-André. Le coefficient trouvé est de 0.377, et l'ouverture de la vanne constante à 0.896m est donnée par la règle de contrôle associée à l'ouvrage. 
  WARNING 04: minimum elevation drop used for Conduit 1_130L
  WARNING 04: minimum elevation drop used for Conduit 1_138L
  WARNING 04: minimum elevation drop used for Conduit 1_184L
  WARNING 04: minimum elevation drop used for Conduit 1_198L
  WARNING 03: negative offset ignored for Link C21
  WARNING 03: negative offset ignored for Link C30
  WARNING 03: negative offset ignored for Link C6
  WARNING 03: negative offset ignored for Link DOM_134104
  WARNING 03: negative offset ignored for Link DOM_17524
  WARNING 03: negative offset ignored for Link DOM_60168
  WARNING 03: negative offset ignored for Link DOM_97360
  WARNING 04: minimum elevation drop used for Conduit E-3-34-20
  WARNING 04: minimum elevation drop used for Conduit PLU_1207074
  WARNING 04: minimum elevation drop used for Conduit PLU_1336684
  WARNING 04: minimum elevation drop used for Conduit PLU_18024
  WARNING 04: minimum elevation drop used for Conduit PLU_19901
  WARNING 04: minimum elevation drop used for Conduit PLU_19902
  WARNING 03: negative offset ignored for Link PLU_31390
  WARNING 03: negative offset ignored for Link PLU_31400
  WARNING 03: negative offset ignored for Link PLU_40365
  WARNING 03: negative offset ignored for Link PLU_40567
  WARNING 04: minimum elevation drop used for Conduit PLU_8464
  WARNING 03: negative offset ignored for Link R406727
  WARNING 03: negative offset ignored for Link UNI_11373
  WARNING 03: negative offset ignored for Link UNI_11653
  WARNING 03: negative offset ignored for Link UNI_1208035
  WARNING 03: negative offset ignored for Link UNI_1208035
  WARNING 03: negative offset ignored for Link UNI_125115
  WARNING 03: negative offset ignored for Link UNI_12843
  WARNING 03: negative offset ignored for Link UNI_1329313
  WARNING 03: negative offset ignored for Link UNI_1373799
  WARNING 03: negative offset ignored for Link UNI_1382113
  WARNING 03: negative offset ignored for Link UNI_1392685
  WARNING 03: negative offset ignored for Link UNI_14128
  WARNING 03: negative offset ignored for Link UNI_14129
  WARNING 03: negative offset ignored for Link UNI_15826
  WARNING 03: negative offset ignored for Link UNI_15828
  WARNING 03: negative offset ignored for Link UNI_1606650
  WARNING 04: minimum elevation drop used for Conduit UNI_1608454
  WARNING 03: negative offset ignored for Link UNI_1640011
  WARNING 03: negative offset ignored for Link UNI_1640041
  WARNING 03: negative offset ignored for Link UNI_1640760
  WARNING 03: negative offset ignored for Link UNI_1643528
  WARNING 03: negative offset ignored for Link UNI_1643529
  WARNING 03: negative offset ignored for Link UNI_1654456
  WARNING 03: negative offset ignored for Link UNI_17218
  WARNING 04: minimum elevation drop used for Conduit UNI_17316
  WARNING 03: negative offset ignored for Link UNI_17331
  WARNING 03: negative offset ignored for Link UNI_17514
  WARNING 03: negative offset ignored for Link UNI_17562
  WARNING 03: negative offset ignored for Link UNI_17571
  WARNING 03: negative offset ignored for Link UNI_18288
  WARNING 03: negative offset ignored for Link UNI_18906
  WARNING 03: negative offset ignored for Link UNI_19439
  WARNING 03: negative offset ignored for Link UNI_19452
  WARNING 03: negative offset ignored for Link UNI_19693
  WARNING 03: negative offset ignored for Link UNI_19704
  WARNING 03: negative offset ignored for Link UNI_19705
  WARNING 03: negative offset ignored for Link UNI_19986
  WARNING 03: negative offset ignored for Link UNI_20140
  WARNING 03: negative offset ignored for Link UNI_20230
  WARNING 03: negative offset ignored for Link UNI_20970
  WARNING 03: negative offset ignored for Link UNI_21253
  WARNING 03: negative offset ignored for Link UNI_23152
  WARNING 03: negative offset ignored for Link UNI_23166
  WARNING 03: negative offset ignored for Link UNI_23170
  WARNING 03: negative offset ignored for Link UNI_23427
  WARNING 03: negative offset ignored for Link UNI_23447
  WARNING 03: negative offset ignored for Link UNI_24941
  WARNING 03: negative offset ignored for Link UNI_30600
  WARNING 03: negative offset ignored for Link UNI_31360
  WARNING 03: negative offset ignored for Link UNI_31605
  WARNING 03: negative offset ignored for Link UNI_31626
  WARNING 03: negative offset ignored for Link UNI_31630
  WARNING 03: negative offset ignored for Link UNI_31854
  WARNING 03: negative offset ignored for Link UNI_31855
  WARNING 03: negative offset ignored for Link UNI_31889
  WARNING 03: negative offset ignored for Link UNI_31893
  WARNING 03: negative offset ignored for Link UNI_32879
  WARNING 03: negative offset ignored for Link UNI_33613
  WARNING 03: negative offset ignored for Link UNI_33892
  WARNING 03: negative offset ignored for Link UNI_36183
  WARNING 03: negative offset ignored for Link UNI_37784
  WARNING 03: negative offset ignored for Link UNI_40559
  WARNING 03: negative offset ignored for Link UNI_40573
  WARNING 03: negative offset ignored for Link UNI_40829
  WARNING 03: negative offset ignored for Link UNI_464353
  WARNING 03: negative offset ignored for Link UNI_56924
  WARNING 03: negative offset ignored for Link UNI_56966
  WARNING 03: negative offset ignored for Link UNI_575085
  WARNING 03: negative offset ignored for Link UNI_59329
  WARNING 03: negative offset ignored for Link UNI_8946
  WARNING 03: negative offset ignored for Link UNI_8948
  WARNING 03: negative offset ignored for Link UNI_8949
  WARNING 03: negative offset ignored for Link UNI_9218
  WARNING 03: negative offset ignored for Link UNI_9218
  WARNING 10: crest elevation raised to downstream invert for regulator Link U224_regulateur
  WARNING 03: negative offset ignored for Link U453_Reg
  WARNING 03: negative offset ignored for Link U466_Reg
  WARNING 03: negative offset ignored for Link U467_Reg
  WARNING 03: negative offset ignored for Link U468_Reg
  WARNING 03: negative offset ignored for Link U488_Reg
  WARNING 03: negative offset ignored for Link U489_Reg
  WARNING 10: crest elevation raised to downstream invert for regulator Link U016_Dev
  WARNING 10: crest elevation raised to downstream invert for regulator Link U018_Dev
  WARNING 10: crest elevation raised to downstream invert for regulator Link U413_Dev
  WARNING 10: crest elevation raised to downstream invert for regulator Link W1
  WARNING 02: maximum depth increased for Node R016367
  WARNING 02: maximum depth increased for Node R016821
  WARNING 02: maximum depth increased for Node U413_Massabielle
  WARNING 02: maximum depth increased for Node U458_Cote_duPalais
  WARNING 02: maximum depth increased for Node U461_Cote_Dambourges
  
  *************
  Element Count
  *************
  Number of rain gages ...... 1
  Number of subcatchments ... 144
  Number of nodes ........... 1493
  Number of links ........... 1532
  Number of pollutants ...... 0
  Number of land uses ....... 0
  
  
  ****************
  Raingage Summary
  ****************
                                                      Data       Recording
  Name                 Data Source                    Type       Interval 
  ------------------------------------------------------------------------
  Raingage1            CC2A3H                         INTENSITY   10 min.
  
  
  ********************
  Subcatchment Summary
  ********************
  Name                       Area     Width   %Imperv    %Slope Rain Gage            Outlet              
  -----------------------------------------------------------------------------------------------------------
  11                         7.83    250.00     32.50    1.0000 Raingage1            R008130             
  500                        1.08     17.40    100.00    2.0000 Raingage1            1_308               
  501                        0.00      0.00    100.00    0.0000 Raingage1            1_306               
  502                       16.50    350.00     30.00    2.0000 Raingage1            J43                 
  503                        0.00      0.00    100.00    0.0000 Raingage1            1_210               
  504                       86.64   1950.00     51.55    2.0000 Raingage1            R030384             
  505                       51.00    304.00     35.96    2.0000 Raingage1            J12                 
  506                      221.19   1970.00     30.48    2.0000 Raingage1            J31                 
  507                       11.81    112.00    100.00    2.0000 Raingage1            R-8_28              
  508                        0.03      1.33    100.00    2.0000 Raingage1            E-12-26-42          
  509                        1.65      9.95    100.00    2.0000 Raingage1            E-12-26-48          
  510                        0.00      0.00    100.00    0.0000 Raingage1            E-12-26-60          
  511                        0.00      0.00    100.00    0.0000 Raingage1            E-12-26-65          
  512                        2.69     12.69    100.00    2.0000 Raingage1            E-12-26-68          
  513                        0.00      0.00    100.00    0.0000 Raingage1            E-12-26-69-8        
  514                        0.00      0.00    100.00    0.0000 Raingage1            E-12-26-69-14D      
  515                        0.23      1.66    100.00    2.0000 Raingage1            R006023             
  516                        1.06     20.60    100.00    2.0000 Raingage1            J66                 
  517                        0.10      2.51    100.00    2.0000 Raingage1            E-12-26-48          
  518                        4.10     26.10    100.00    2.0000 Raingage1            J57                 
  519                        1.95     11.00    100.00    2.0000 Raingage1            R024928             
  520                        0.00      0.00    100.00    0.0000 Raingage1            R015021             
  521                        0.45      5.19    100.00    2.0000 Raingage1            R015021             
  522                        0.09      5.90    100.00    2.0000 Raingage1            1_336               
  523                        3.81     23.00    100.00    2.0000 Raingage1            R030823             
  524                        1.65     21.60    100.00    2.0000 Raingage1            J64                 
  525                        7.60     58.00    100.00    2.0000 Raingage1            R026169             
  526                        2.58     27.89    100.00    2.0000 Raingage1            R026169             
  527                       10.10     47.00    100.00    2.0000 Raingage1            R026169             
  528                        4.10     40.50    100.00    2.0000 Raingage1            J9                  
  529                        0.00      0.00    100.00    0.0000 Raingage1            E-12-50             
  530                        0.03      1.70    100.00    2.0000 Raingage1            E-12-57             
  531                        0.51      6.00    100.00    2.0000 Raingage1            E-12-64             
  532                        0.40      6.00    100.00    2.0000 Raingage1            E-12-67             
  533                        0.08      4.30    100.00    2.0000 Raingage1            E-12-75             
  534                        3.09     41.00    100.00    2.0000 Raingage1            E-12-85             
  535                        6.29     70.00    100.00    2.0000 Raingage1            E-12-31             
  536                        1.80     10.60    100.00    2.0000 Raingage1            E-12-57             
  537                        0.09      3.20    100.00    2.0000 Raingage1            E-12-75             
  538                        0.00      0.00    100.00    0.0000 Raingage1            E-12-26-12          
  539                        5.04     38.92    100.00    2.0000 Raingage1            E-12-26-15          
  540                        0.51     12.49    100.00    2.0000 Raingage1            R043915             
  541                        2.91     29.50    100.00    2.0000 Raingage1            E-12-26-22          
  542                        0.00      0.00    100.00    0.0000 Raingage1            E-12-44             
  543                        1.89     23.85    100.00    2.0000 Raingage1            R406727             
  544                        2.13     25.26    100.00    2.0000 Raingage1            E-12-40             
  545                        0.93     16.80    100.00    2.0000 Raingage1            R043792             
  546                        1.32     16.68    100.00    2.0000 Raingage1            E-12-36             
  547                      239.12   3542.52     52.60    0.5000 Raingage1            R522881             
  548                        1.21     80.00     66.30    0.5000 Raingage1            R022467             
  549                       21.89      0.05    100.00    2.0000 Raingage1            E-12-25             
  550                        0.00      0.00    100.00    0.0000 Raingage1            1_272               
  551                        0.00      0.00    100.00    0.0000 Raingage1            1_156               
  552                        0.33     11.50    100.00    2.0000 Raingage1            1_198               
  553                        0.46     13.60    100.00    2.0000 Raingage1            1_218               
  554                        0.83     18.20    100.00    2.0000 Raingage1            1_238               
  555                        0.26     10.20    100.00    2.0000 Raingage1            1_266               
  556                        1.02     20.20    100.00    2.0000 Raingage1            J49                 
  557                        3.03     34.70    100.00    2.0000 Raingage1            R032317             
  558                        0.33     11.50    100.00    2.0000 Raingage1            1_144               
  600                        0.50     71.00    100.00    2.0000 Raingage1            R014193             
  700                      147.77   1787.50     33.66    4.2500 Raingage1            R006831             
  701                       17.22    263.45     36.72    0.6000 Raingage1            R007862             
  702                       29.46    677.34     56.29    1.3300 Raingage1            R007996             
  703                       12.26    270.94     54.58   10.0600 Raingage1            R010053             
  704                       31.83    785.72     62.26    0.6300 Raingage1            R008610             
  705                       12.18    776.51     63.96    0.2000 Raingage1            R008393             
  706                       22.94    298.03     46.91    1.5200 Raingage1            R015502             
  707                        0.00      0.00    100.00    0.0000 Raingage1            R015252             
  708                      179.40   2438.44     52.46    4.6700 Raingage1            R015955             
  709                       34.14    426.32     92.95    1.6300 Raingage1            R016822             
  710                       37.91   2543.63     63.62    6.1000 Raingage1            R015979             
  711                        8.62    997.10     68.68    5.8300 Raingage1            R016945             
  712                        6.82    974.58     66.51    1.5500 Raingage1            R014157             
  713                        4.20    287.79     68.68    2.6500 Raingage1            R014161             
  714                        0.00      0.00    100.00    0.0000 Raingage1            RA_9306             
  715                       40.52    872.10     56.39    5.3700 Raingage1            R017559             
  716                       13.76    970.57     77.91    0.7200 Raingage1            R015869             
  717                        9.10    304.00     98.00    0.3000 Raingage1            R023686             
  718                       70.42   3135.42     62.00    0.1700 Raingage1            R025415             
  719                       47.93    884.34     59.58    0.7400 Raingage1            R023907             
  720                       35.24    548.29     74.24    2.4300 Raingage1            R024144             
  721                       21.49    594.28     67.83    2.5900 Raingage1            RA_276200           
  726                        0.00      0.00    100.00    0.0000 Raingage1            R025300             
  727                       32.95   1360.00     33.15    0.6800 Raingage1            R691075             
  728                       16.90    935.00     40.80    0.9900 Raingage1            R697459             
  729                        3.15    440.30     54.19    1.0200 Raingage1            R023301             
  731                        8.51    699.55     54.19    1.0700 Raingage1            R023321             
  732                       10.68    984.30     49.09    1.0200 Raingage1            RA_207381           
  733                        6.49   1036.00     43.63    7.8600 Raingage1            R643219             
  734                        9.05   1311.01     62.00    2.7200 Raingage1            R024634             
  735                        8.51   1036.00     55.11    1.4300 Raingage1            R024663             
  736                       29.54   2400.01     68.12    0.6100 Raingage1            R014032             
  737                       18.87   1370.00     57.41    0.8100 Raingage1            R025155             
  738                       16.82   1150.00     55.88    0.9700 Raingage1            R025143             
  739                       32.34    992.25     72.88    0.6700 Raingage1            R017536             
  740                        9.84    247.64     61.41    1.5800 Raingage1            R560034             
  741                        7.31   1280.01     64.30    0.3500 Raingage1            RA_11071            
  742                       27.71   1100.00     67.36    2.0500 Raingage1            R014967             
  743                       17.60    730.00     63.53   15.5700 Raingage1            R015167             
  744                       43.54   1750.00     55.11    2.0000 Raingage1            R014358             
  745                       40.78    623.00     58.17    2.0000 Raingage1            R015189             
  746                        6.50     68.00     62.00    2.0000 Raingage1            R402575             
  747                       26.59    520.00     53.58    2.0000 Raingage1            R016134             
  748                        6.35    100.00     58.17   10.1700 Raingage1            R016141             
  749                        1.61     91.00     61.24   12.0000 Raingage1            R016137             
  750                        2.10    290.00    100.00    2.0000 Raingage1            R007281             
  751                        5.55    260.00     45.93    3.4000 Raingage1            R016878             
  752                        0.00      0.00    100.00    0.0000 Raingage1            R016625             
  753                        0.00      0.00    100.00    0.0000 Raingage1            R016624             
  754                        0.40     78.00    100.00    2.0000 Raingage1            R007637             
  755                        0.49     78.00    100.00    2.0000 Raingage1            R007637             
  756                       24.27   1462.00     42.87    2.0000 Raingage1            RA_10563            
  758                        9.70    241.47     83.19    1.7290 Raingage1            R061385             
  759                       29.33    568.38     45.47    0.7720 Raingage1            R061762             
  760                        0.69      8.00    100.00    2.0000 Raingage1            E-3-34-27           
  761                       38.91    672.35     80.00    2.1200 Raingage1            R264641             
  762                        0.26      5.00    100.00    2.0000 Raingage1            E-3-34-18           
  763                        0.17     82.00    100.00    2.0000 Raingage1            R007275             
  764                       27.47    944.77     64.34    2.2300 Raingage1            R016581             
  801                        4.07    237.24     70.00    1.1000 Raingage1            R690836             
  802                       10.86    402.55     80.00    0.2000 Raingage1            R022346             
  803                        7.52    258.70     89.00    0.4000 Raingage1            R025465             
  804                        8.18    416.94     80.00    0.5000 Raingage1            R024813             
  805                        7.43    537.09     32.51    0.9000 Raingage1            R024818             
  806                        6.57    477.36     52.02    0.4000 Raingage1            R024573             
  807                        6.92    402.94     52.02    0.2000 Raingage1            R025067             
  808                        9.28    566.96     52.02    0.2000 Raingage1            R025068             
  809                        9.79    287.47     80.00    1.1000 Raingage1            R021838             
  810                        7.62    215.54     80.00    0.5000 Raingage1            RA_14614            
  811                        5.54    341.60     56.53    0.5000 Raingage1            R024832             
  812                        5.11    597.10     64.60    0.3000 Raingage1            R024805             
  813                        7.69    639.80     67.83    0.5000 Raingage1            R024613             
  814                        8.17    767.90     56.53    0.4000 Raingage1            R025298             
  815                        8.20    938.70     58.14    1.2000 Raingage1            R025298             
  816                       10.07    896.00     53.30    0.6000 Raingage1            R003376             
  817                        8.43    875.00     60.56    0.4000 Raingage1            R003328             
  818                        8.44   1215.89     60.56    0.3000 Raingage1            R003328             
  819                        8.57   1152.21     56.53    0.1000 Raingage1            R003287             
  820                       10.34    896.00     56.53    0.2000 Raingage1            R003287             
  931                        9.55   2133.60     11.30    0.7000 Raingage1            R024862             
  934                       10.74   1045.80     68.64    0.3000 Raingage1            R024579             
  936                       11.07    917.70     68.64    0.2000 Raingage1            R003365             
  999                       12.00    667.22     39.60    2.0000 Raingage1            R014192             
  
  
  ************
  Node Summary
  ************
                                           Invert      Max.    Ponded    External
  Name                 Type                 Elev.     Depth      Area    Inflow  
  -------------------------------------------------------------------------------
  1_102                JUNCTION             -1.11      3.24     500.0
  1_104                JUNCTION             -1.00      3.77     500.0
  1_106                JUNCTION             -0.91      3.96     500.0
  1_108                JUNCTION             -0.84      4.19     500.0
  1_110                JUNCTION             -0.66      4.32     500.0
  1_112                JUNCTION             -0.57      4.53     500.0
  1_114                JUNCTION             -0.48      4.29     500.0
  1_116                JUNCTION             -0.39      4.41     500.0
  1_118                JUNCTION             -0.29      5.78     500.0
  1_120                JUNCTION             -0.20      6.91     500.0
  1_122                JUNCTION              0.23      4.95     500.0
  1_124                JUNCTION              0.57      4.31     500.0
  1_126                JUNCTION              0.93      5.02     500.0
  1_128                JUNCTION              1.03      4.76     500.0
  1_130                JUNCTION              1.03      4.92     500.0
  1_132                JUNCTION              1.21      4.19     500.0
  1_134                JUNCTION              1.22      4.27     500.0
  1_136                JUNCTION              1.25      4.24     500.0
  1_138                JUNCTION              1.25      4.15     500.0
  1_140                JUNCTION              1.27      3.85     500.0
  1_142                JUNCTION              1.29      3.89     500.0
  1_144                JUNCTION              1.98      4.57     500.0    Yes
  1_146                JUNCTION              2.62      4.54     500.0
  1_148                JUNCTION              3.20      5.31     500.0
  1_150                JUNCTION              3.42      5.73     500.0
  1_152                JUNCTION              7.21      3.83     500.0
  1_154                JUNCTION              9.15      3.78     500.0
  1_156                JUNCTION             11.09      3.73     500.0    Yes
  1_158                JUNCTION             13.41      3.72     500.0
  1_160                JUNCTION             16.28      3.69     500.0
  1_162                JUNCTION             18.05      3.90     500.0
  1_164                JUNCTION             18.98      4.50     500.0
  1_166                JUNCTION             19.15      5.55     500.0
  1_168                JUNCTION             19.32      4.86     500.0
  1_170                JUNCTION             19.39      4.57     500.0
  1_172                JUNCTION             19.48      4.70     500.0
  1_174                JUNCTION             19.59      5.23     500.0
  1_176                JUNCTION             19.73      5.27     500.0
  1_178                JUNCTION             19.85      4.85     500.0
  1_180                JUNCTION             19.86      4.93     500.0
  1_182                JUNCTION             19.98      4.81     500.0
  1_184                JUNCTION             19.98      4.81     500.0
  1_186                JUNCTION             20.10      4.72     500.0
  1_188                JUNCTION             20.21      4.79     500.0
  1_190                JUNCTION             20.30      4.70     500.0
  1_192                JUNCTION             20.40      4.14     500.0
  1_194                JUNCTION             20.45      3.94     500.0
  1_196                JUNCTION             20.54      3.76     500.0
  1_198                JUNCTION             20.54      3.82     500.0    Yes
  1_200                JUNCTION             20.62      4.20     500.0
  1_202                JUNCTION             20.71      4.32     500.0
  1_204                JUNCTION             20.80      4.41     500.0
  1_206                JUNCTION             20.86      4.57     500.0
  1_210                JUNCTION             20.92      4.11     500.0    Yes
  1_212                JUNCTION             20.99      4.35     500.0
  1_214                JUNCTION             21.04      4.39     500.0
  1_216                JUNCTION             21.13      3.90     500.0
  1_218                JUNCTION             21.31      3.69     500.0    Yes
  1_220                JUNCTION             21.36      3.79     500.0
  1_222                JUNCTION             21.44      3.86     500.0
  1_224                JUNCTION             21.55      3.51     500.0
  1_226                JUNCTION             21.61      3.54     500.0
  1_228                JUNCTION             21.65      3.59     500.0
  1_230                JUNCTION             21.74      2.50     500.0
  1_232                JUNCTION             21.84      3.22     500.0
  1_234                JUNCTION             21.94      3.40     500.0
  1_236                JUNCTION             22.04      4.45     500.0
  1_238                JUNCTION             22.05      4.96     500.0    Yes
  1_240                JUNCTION             25.79      4.73     500.0
  1_242                JUNCTION             29.27      4.48     500.0
  1_244                JUNCTION             32.93      4.91     500.0
  1_246                JUNCTION             39.66      5.22     500.0
  1_248                JUNCTION             46.34      4.45     500.0
  1_250                JUNCTION             51.83      4.30     500.0
  1_252                JUNCTION             53.13      3.03     500.0
  1_254                JUNCTION             53.47      3.39     500.0
  1_256                JUNCTION             53.87      3.90     500.0
  1_258                JUNCTION             54.39      3.84     500.0
  1_260                JUNCTION             54.65      4.04     500.0
  1_262                JUNCTION             55.20      1.96     500.0
  1_264                JUNCTION             56.65      2.80     500.0
  1_266                JUNCTION             58.06      8.10     500.0    Yes
  1_268                JUNCTION             58.75      3.17     500.0
  1_270                JUNCTION             59.10      3.03     500.0
  1_272                JUNCTION             59.76      3.75     500.0    Yes
  1_304                JUNCTION             -1.19      5.82     500.0
  1_306                JUNCTION             -0.99      5.50     500.0    Yes
  1_308                JUNCTION             -0.84      5.29     500.0    Yes
  1_310                JUNCTION             -0.69      5.42     500.0
  1_312                JUNCTION             -0.52      5.37     500.0
  1_314                JUNCTION             -0.30      5.09     500.0
  1_316                JUNCTION              0.05      4.52     500.0
  1_318                JUNCTION              0.33      4.15     500.0
  1_320                JUNCTION              0.63      3.64     500.0
  1_322                JUNCTION              0.81      3.24     500.0
  1_324                JUNCTION              0.98      3.23     500.0
  1_326                JUNCTION              1.13      2.99     500.0
  1_328                JUNCTION              1.31      3.35     500.0
  1_330                JUNCTION              1.38      3.28     500.0
  1_332                JUNCTION              1.68      2.98     500.0
  1_334                JUNCTION              1.90      2.95     500.0
  1_336                JUNCTION              2.21      2.45     500.0    Yes
  1_338                JUNCTION              2.29      2.37     500.0
  1_340                JUNCTION              2.47      2.19     500.0
  1_342                JUNCTION              2.74      1.92     500.0
  Bloc-Joint-Lbnf      JUNCTION             22.49      3.46     500.0
  CHRG                 JUNCTION              5.21      3.12     500.0
  E-10                 JUNCTION             -2.46      7.23     500.0
  E-11                 JUNCTION             -2.38      9.51     500.0
  E-12                 JUNCTION             -2.29     10.08     500.0
  E-12-1               JUNCTION             -1.34      8.17     500.0
  E-12-10              JUNCTION              0.60      4.98     500.0
  E-12-11              JUNCTION              0.94      4.91     500.0
  E-12-12              JUNCTION              1.38      4.75     500.0
  E-12-13              JUNCTION              1.79      4.52     500.0
  E-12-14              JUNCTION              2.14      4.63     500.0
  E-12-14A             JUNCTION              2.20      4.71     500.0
  E-12-15              JUNCTION              2.28      5.01     500.0
  E-12-16              JUNCTION              3.37      4.09     500.0
  E-12-17              JUNCTION              4.37      3.90     500.0
  E-12-18              JUNCTION              5.38      8.18     500.0
  E-12-19              JUNCTION              5.56      8.48     500.0
  E-12-2               JUNCTION             -1.20      8.71     500.0
  E-12-20              JUNCTION              5.74      8.40     500.0
  E-12-21              JUNCTION              5.89      7.78     500.0
  E-12-22              JUNCTION              6.04      8.26     500.0
  E-12-23              JUNCTION              6.22      7.95     500.0
  E-12-24              JUNCTION              6.25      7.88     500.0
  E-12-25              JUNCTION              6.35      8.27     500.0    Yes
  E-12-26              JUNCTION              6.45      8.60     500.0
  E-12-26-1            JUNCTION              6.62      8.65     500.0
  E-12-26-10           JUNCTION              7.21      7.11     500.0
  E-12-26-11           JUNCTION              7.77      6.34     500.0
  E-12-26-12           JUNCTION              7.85      6.19     500.0    Yes
  E-12-26-13           JUNCTION              7.99      5.84     500.0
  E-12-26-14           JUNCTION              8.12      5.74     500.0
  E-12-26-15           JUNCTION              8.26      5.71     500.0    Yes
  E-12-26-16           JUNCTION              8.38      5.24     500.0
  E-12-26-17           JUNCTION              8.49      5.88     500.0
  E-12-26-18           JUNCTION              8.61      5.32     500.0
  E-12-26-19           JUNCTION              8.74      5.15     500.0
  E-12-26-2            JUNCTION              6.81      7.47     500.0
  E-12-26-20           JUNCTION              8.89      4.83     500.0
  E-12-26-21           JUNCTION              9.02      4.52     500.0
  E-12-26-22           JUNCTION              9.06      4.58     500.0    Yes
  E-12-26-23           JUNCTION              9.08      4.56     500.0
  E-12-26-24           JUNCTION              9.12      4.52     500.0
  E-12-26-25           JUNCTION              9.24      4.88     500.0
  E-12-26-26           JUNCTION              9.35      4.57     500.0
  E-12-26-27           JUNCTION              9.45      3.64     500.0
  E-12-26-28           JUNCTION              9.56      4.82     500.0
  E-12-26-29           JUNCTION              9.68      4.57     500.0
  E-12-26-3            JUNCTION              6.89      7.61     500.0
  E-12-26-30           JUNCTION              9.92      4.51     500.0
  E-12-26-31           JUNCTION             10.09      4.23     500.0
  E-12-26-32           JUNCTION             10.27      4.09     500.0
  E-12-26-33           JUNCTION             10.50      4.12     500.0
  E-12-26-34           JUNCTION             10.79      3.76     500.0
  E-12-26-35           JUNCTION             11.04      3.20     500.0
  E-12-26-36           JUNCTION             11.34      2.91     500.0
  E-12-26-37           JUNCTION             11.59      3.21     500.0
  E-12-26-38           JUNCTION             11.78      2.85     500.0
  E-12-26-39           JUNCTION             11.80      2.85     500.0
  E-12-26-4            JUNCTION              6.97      7.48     500.0
  E-12-26-40           JUNCTION             12.06      3.25     500.0
  E-12-26-41           JUNCTION             12.18      5.32     500.0
  E-12-26-42           JUNCTION             12.32      5.09     500.0    Yes
  E-12-26-43           JUNCTION             12.55      5.19     500.0
  E-12-26-44           JUNCTION             12.74      4.57     500.0
  E-12-26-45           JUNCTION             12.93      4.81     500.0
  E-12-26-46           JUNCTION             13.11      4.99     500.0
  E-12-26-47           JUNCTION             13.35      4.69     500.0
  E-12-26-48           JUNCTION             13.45      4.48     500.0    Yes
  E-12-26-49           JUNCTION             13.67      4.89     500.0
  E-12-26-5            JUNCTION              7.00      7.44     500.0
  E-12-26-50           JUNCTION             13.81      4.93     500.0
  E-12-26-51           JUNCTION             14.05      4.76     500.0
  E-12-26-52           JUNCTION             14.21      3.19     500.0
  E-12-26-53           JUNCTION             14.48      3.65     500.0
  E-12-26-54           JUNCTION             14.66      3.83     500.0
  E-12-26-55           JUNCTION             14.88      4.83     500.0
  E-12-26-55A          JUNCTION             14.91      4.79     500.0
  E-12-26-56           JUNCTION             15.02      3.78     500.0
  E-12-26-57           JUNCTION             15.09      5.30     500.0
  E-12-26-58           JUNCTION             15.37      8.53     500.0
  E-12-26-59           JUNCTION             15.55      5.83     500.0
  E-12-26-6            JUNCTION              7.16      7.74     500.0
  E-12-26-60           JUNCTION             15.76      5.94     500.0    Yes
  E-12-26-61           JUNCTION             16.04      6.10     500.0
  E-12-26-62           JUNCTION             16.22      7.74     500.0
  E-12-26-63           JUNCTION             16.52      7.17     500.0
  E-12-26-64           JUNCTION             16.77      8.88     500.0
  E-12-26-65           JUNCTION             16.95      3.65     500.0    Yes
  E-12-26-66           JUNCTION             17.41      7.97     500.0
  E-12-26-67           JUNCTION             19.66      6.23     500.0
  E-12-26-68           JUNCTION             20.14      5.35     500.0    Yes
  E-12-26-69           JUNCTION             20.38      5.74     500.0
  E-12-26-69-1         JUNCTION             20.60      5.77     500.0
  E-12-26-69-10        JUNCTION             44.30      3.05     500.0
  E-12-26-69-11        JUNCTION             46.52      2.42     500.0
  E-12-26-69-12        JUNCTION             47.44      2.43     500.0
  E-12-26-69-13        JUNCTION             48.03      2.69     500.0
  E-12-26-69-14        JUNCTION             48.23      2.54     500.0
  E-12-26-69-14B       JUNCTION             48.28      2.62     500.0
  E-12-26-69-14C       JUNCTION             48.58      3.11     500.0
  E-12-26-69-14D       JUNCTION             48.94      2.66     500.0    Yes
  E-12-26-69-15A       JUNCTION             49.83      2.80     500.0
  E-12-26-69-15B       JUNCTION             49.90      2.80     500.0
  E-12-26-69-15C       JUNCTION             50.81      2.55     500.0
  E-12-26-69-15D       JUNCTION             50.89      2.52     500.0
  E-12-26-69-15E       JUNCTION             51.22      2.68     500.0
  E-12-26-69-16B       JUNCTION             51.83      3.25     500.0
  E-12-26-69-16C       JUNCTION             51.91      3.29     500.0
  E-12-26-69-17A       JUNCTION             53.04      2.60     500.0
  E-12-26-69-17B       JUNCTION             53.55      2.55     500.0
  E-12-26-69-18A       JUNCTION             53.87      2.64     500.0
  E-12-26-69-18B       JUNCTION             54.63      2.66     500.0
  E-12-26-69-18C       JUNCTION             55.20      2.77     500.0
  E-12-26-69-18D       JUNCTION             57.10      2.63     500.0
  E-12-26-69-19        JUNCTION             57.15      2.72     500.0
  E-12-26-69-19A       JUNCTION             58.47      1.68     500.0
  E-12-26-69-2         JUNCTION             23.38      2.94     500.0
  E-12-26-69-20        JUNCTION             59.15      2.97     500.0
  E-12-26-69-21        JUNCTION             60.20      2.88     500.0
  E-12-26-69-22        JUNCTION             61.83      2.77     500.0
  E-12-26-69-3         JUNCTION             24.19      3.11     500.0
  E-12-26-69-4         JUNCTION             24.99      2.61     500.0
  E-12-26-69-4A        JUNCTION             25.52      2.28     500.0
  E-12-26-69-5         JUNCTION             26.26      3.53     500.0
  E-12-26-69-6         JUNCTION             31.62      3.25     500.0
  E-12-26-69-7         JUNCTION             33.37      3.40     500.0
  E-12-26-69-8         JUNCTION             35.22      3.28     500.0    Yes
  E-12-26-69-9         JUNCTION             42.92      2.72     500.0
  E-12-26-7            JUNCTION              7.20      7.60     500.0
  E-12-26-70           JUNCTION             21.04      5.94     500.0
  E-12-26-71           JUNCTION             21.52      6.08     500.0
  E-12-26-72           JUNCTION             22.01      4.20     500.0
  E-12-26-73           JUNCTION             22.50      3.44     500.0
  E-12-26-8            JUNCTION              7.45      7.54     500.0
  E-12-26-9            JUNCTION              7.25      6.53     500.0
  E-12-26A             JUNCTION              9.53      5.57     500.0
  E-12-26B             JUNCTION             11.76      4.14     500.0
  E-12-27A             JUNCTION             12.03      3.92     500.0
  E-12-28              JUNCTION             12.95      4.00     500.0
  E-12-29              JUNCTION             14.44      4.57     500.0
  E-12-3               JUNCTION             -1.18      6.87     500.0
  E-12-30              JUNCTION             15.64      3.52     500.0
  E-12-31              JUNCTION             18.36      7.69     500.0    Yes
  E-12-32              JUNCTION             20.21      3.71     500.0
  E-12-33              JUNCTION             22.81      3.46     500.0
  E-12-34              JUNCTION             25.38      4.41     500.0
  E-12-35              JUNCTION             31.67      4.50     500.0
  E-12-36              JUNCTION             43.25      4.69     500.0    Yes
  E-12-37              JUNCTION             48.56      4.22     500.0
  E-12-38              JUNCTION             50.79      4.53     500.0
  E-12-39              JUNCTION             53.54      3.60     500.0
  E-12-4               JUNCTION             -1.04      6.89     500.0
  E-12-40              JUNCTION             56.60      5.25     500.0    Yes
  E-12-41              JUNCTION             63.62      6.36     500.0
  E-12-42              JUNCTION             67.53      4.55     500.0
  E-12-43              JUNCTION             68.56      4.06     500.0
  E-12-44              JUNCTION             69.48      4.49     500.0    Yes
  E-12-45              JUNCTION             70.54      4.26     500.0
  E-12-46              JUNCTION             73.51      4.70     500.0
  E-12-47              JUNCTION             76.51      5.41     500.0
  E-12-48              JUNCTION             79.44      4.44     500.0
  E-12-49              JUNCTION             80.87      6.09     500.0
  E-12-5               JUNCTION             -0.69      4.99     500.0
  E-12-50              JUNCTION             82.43      4.21     500.0    Yes
  E-12-51              JUNCTION             84.00      3.12     500.0
  E-12-52              JUNCTION             85.80      4.66     500.0
  E-12-53              JUNCTION             87.63      4.17     500.0
  E-12-54              JUNCTION             89.41      3.28     500.0
  E-12-55              JUNCTION             91.34      4.82     500.0
  E-12-56              JUNCTION             93.26      5.62     500.0
  E-12-57              JUNCTION             98.28      4.35     500.0    Yes
  E-12-58              JUNCTION            102.12      3.69     500.0
  E-12-59              JUNCTION            103.35      4.88     500.0
  E-12-6               JUNCTION             -0.07      4.60     500.0
  E-12-60              JUNCTION            104.88      5.37     500.0
  E-12-61              JUNCTION            105.37      3.90     500.0
  E-12-62              JUNCTION            105.59      4.53     500.0
  E-12-63              JUNCTION            105.83      5.14     500.0
  E-12-64              JUNCTION            105.91      5.44     500.0    Yes
  E-12-65              JUNCTION            106.06      6.79     500.0
  E-12-66              JUNCTION            106.24      7.03     500.0
  E-12-67              JUNCTION            106.35      7.11     500.0    Yes
  E-12-68              JUNCTION            106.37      6.80     500.0
  E-12-69              JUNCTION            106.53      6.66     500.0
  E-12-7               JUNCTION             -0.03      4.57     500.0
  E-12-70              JUNCTION            106.60      6.68     500.0
  E-12-71              JUNCTION            106.66      6.67     500.0
  E-12-72              JUNCTION            106.73      6.99     500.0
  E-12-73              JUNCTION            106.86      7.58     500.0
  E-12-74              JUNCTION            106.92      7.51     500.0
  E-12-75              JUNCTION            106.97      7.52     500.0    Yes
  E-12-76              JUNCTION            107.08      6.92     500.0
  E-12-77              JUNCTION            107.23      6.93     500.0
  E-12-78              JUNCTION            107.26      6.53     500.0
  E-12-79              JUNCTION            107.40      6.49     500.0
  E-12-8               JUNCTION              0.15      5.32     500.0
  E-12-80              JUNCTION            107.42      6.59     500.0
  E-12-81              JUNCTION            107.61      4.95     500.0
  E-12-82              JUNCTION            107.70      4.11     500.0
  E-12-83              JUNCTION            107.71      4.11     500.0
  E-12-84              JUNCTION            107.87      3.44     500.0
  E-12-85              JUNCTION            107.88      3.43     500.0    Yes
  E-12-9               JUNCTION              0.20      5.49     500.0
  E-3-34-10            JUNCTION              2.51      6.59     500.0
  E-3-34-11            JUNCTION              2.59      6.40     500.0
  E-3-34-11A           JUNCTION              2.86      6.34     500.0
  E-3-34-11B           JUNCTION              2.90      6.31     500.0
  E-3-34-11C           JUNCTION              3.08      6.32     500.0
  E-3-34-12            JUNCTION              3.03      2.42     500.0
  E-3-34-13            JUNCTION              3.14      2.69     500.0
  E-3-34-14            JUNCTION              3.29      1.85     500.0
  E-3-34-15            JUNCTION              3.43      2.61     500.0
  E-3-34-16            JUNCTION              3.58      2.37     500.0
  E-3-34-17            JUNCTION              3.62      2.68     500.0
  E-3-34-18            JUNCTION              3.69      2.41     500.0    Yes
  E-3-34-19            JUNCTION              3.75      2.35     500.0
  E-3-34-2             JUNCTION              0.46      8.11     500.0
  E-3-34-20            JUNCTION              3.78      2.42     500.0
  E-3-34-21            JUNCTION              3.91      2.51     500.0
  E-3-34-22            JUNCTION              4.04      2.48     500.0
  E-3-34-23            JUNCTION              4.20      2.65     500.0
  E-3-34-24            JUNCTION              4.23      2.13     500.0
  E-3-34-25            JUNCTION              4.35      2.35     500.0
  E-3-34-26            JUNCTION              4.43      1.86     500.0
  E-3-34-27            JUNCTION              4.51      1.78     500.0    Yes
  E-3-34-28            JUNCTION              4.60      2.50     500.0
  E-3-34-29            JUNCTION              4.71      1.95     500.0
  E-3-34-3             JUNCTION              1.06      7.64     500.0
  E-3-34-30            JUNCTION              4.92      1.63     500.0
  E-3-34-31            JUNCTION              5.13      4.47     500.0
  E-3-34-32            JUNCTION              5.22      3.81     500.0
  E-3-34-33            JUNCTION              5.49      6.01     500.0
  E-3-34-34            JUNCTION              5.55      5.70     500.0
  E-3-34-4             JUNCTION              1.46      6.64     500.0
  E-3-34-5             JUNCTION              1.65      6.55     500.0
  E-3-34-6             JUNCTION              1.98      6.72     500.0
  E-3-34-7             JUNCTION              2.13      6.76     500.0
  E-3-34-8             JUNCTION              2.29      7.16     500.0
  E-3-34-9             JUNCTION              2.40      7.25     500.0
  E-6                  JUNCTION             -2.97      8.77     500.0
  E-7                  JUNCTION             -2.88      8.50     500.0
  E-8                  JUNCTION             -2.74      8.33     500.0
  E-9                  JUNCTION             -2.64      7.70     500.0
  J1                   JUNCTION              4.00      3.78     500.0
  J10                  JUNCTION              2.29      3.00     500.0
  J12                  JUNCTION              3.79      2.50     500.0    Yes
  J13                  JUNCTION              4.81      9.19     500.0
  J14                  JUNCTION              4.60      9.40     500.0
  J16                  JUNCTION              3.17      5.33     500.0
  J2                   JUNCTION             -5.70     10.70     500.0
  J22                  JUNCTION              2.85      5.15     500.0
  J23                  JUNCTION              2.15      5.85     500.0
  J24                  JUNCTION             -0.10      8.55     500.0
  J25                  JUNCTION              4.85      3.15     500.0
  J27                  JUNCTION              1.49     10.51     500.0
  J28                  JUNCTION              3.99      6.51     500.0
  J30                  JUNCTION             -1.12      6.71     500.0
  J31                  JUNCTION              4.29      3.00     500.0    Yes
  J32                  JUNCTION              5.62      3.42     500.0
  J33                  JUNCTION              4.12      4.42     500.0
  J34                  JUNCTION              4.59      4.12     500.0
  J36                  JUNCTION              6.47      2.56     500.0
  J37                  JUNCTION              4.67      4.05     500.0
  J38                  JUNCTION              4.00      2.09     500.0
  J39                  JUNCTION              3.65      1.90     500.0
  J4                   JUNCTION              3.99      6.01     500.0
  J40                  JUNCTION              3.46      2.37     500.0
  J41                  JUNCTION              3.20      2.63     500.0
  J42                  JUNCTION             65.03      2.25     500.0
  J43                  JUNCTION             23.84      3.17     500.0    Yes
  J44                  JUNCTION             23.15      3.45     500.0
  J45                  JUNCTION             11.91      3.82     500.0
  J46                  JUNCTION             67.22      2.25     500.0
  J47                  JUNCTION             69.75      2.25     500.0
  J48                  JUNCTION             72.51      2.25     500.0
  J49                  JUNCTION             75.81      2.25     500.0    Yes
  J50                  JUNCTION             79.37      2.25     500.0
  J51                  JUNCTION             83.06      2.25     500.0
  J52                  JUNCTION             86.41      2.25     500.0
  J53                  JUNCTION             89.42      2.25     500.0
  J54                  JUNCTION             92.80      2.25     500.0
  J55                  JUNCTION             96.95      1.82     500.0
  J56                  JUNCTION             98.08      2.18     500.0
  J57                  JUNCTION             99.62      2.18     500.0    Yes
  J58                  JUNCTION             63.23      3.75     500.0
  J59                  JUNCTION             66.74      3.75     500.0
  J60                  JUNCTION             69.58      3.75     500.0
  J61                  JUNCTION             72.45      3.80     500.0
  J62                  JUNCTION             75.44      3.74     500.0
  J63                  JUNCTION             78.96      3.75     500.0
  J64                  JUNCTION             82.25      3.74     500.0    Yes
  J65                  JUNCTION             77.81      3.74     500.0
  J66                  JUNCTION             80.73      3.74     500.0    Yes
  J67                  JUNCTION             12.66      4.69     500.0
  J68                  JUNCTION              5.21      3.13     500.0
  J69                  JUNCTION              3.60      3.40     500.0
  J7                   JUNCTION              6.08      2.92     500.0
  J70                  JUNCTION              2.94      4.07     500.0
  J71                  JUNCTION              0.80      2.01     500.0
  J74                  JUNCTION              5.19      3.14     500.0
  J75                  JUNCTION             -3.50      3.50     500.0
  J79                  JUNCTION            100.80      2.17     500.0
  J8                   JUNCTION              0.16      3.19     500.0
  J80                  JUNCTION             59.74      4.02     500.0
  J83                  JUNCTION              9.70      3.88     500.0
  J9                   JUNCTION              2.69      3.61     500.0    Yes
  R__U_7               JUNCTION              7.48      4.02       0.0
  R000106              JUNCTION             62.95      2.45     500.0
  R000118              JUNCTION             62.21      2.79     500.0
  R000121              JUNCTION             62.45      2.65     500.0
  R002670              JUNCTION              1.76      5.04     500.0
  R002671              JUNCTION              2.03      5.09     500.0
  R002694              JUNCTION              2.07      3.28     500.0
  R002703              JUNCTION              1.82      5.00     500.0
  R002704              JUNCTION              1.67      4.96     500.0
  R002716              JUNCTION              2.21      3.21     500.0
  R003287              JUNCTION              9.76      4.09     500.0    Yes
  R003309              JUNCTION              9.26      3.96     500.0
  R003318              JUNCTION              9.49      4.38     500.0
  R003328              JUNCTION              9.37      4.76     500.0    Yes
  R003336              JUNCTION              9.23      4.69     500.0
  R003338              JUNCTION              8.98      3.98     500.0
  R003340              JUNCTION              8.66      5.11     500.0
  R003354              JUNCTION              8.65      5.14     500.0
  R003356              JUNCTION              8.57      5.07     500.0
  R003365              JUNCTION              9.55      3.88     500.0    Yes
  R003373              JUNCTION              9.57      3.95     500.0
  R003376              JUNCTION              8.72      5.00     500.0    Yes
  R003384              JUNCTION              8.64      4.62     500.0
  R006023              JUNCTION             63.28      2.82     500.0    Yes
  R006827              JUNCTION             16.81      4.01     500.0
  R006831              JUNCTION             17.07      4.05     500.0    Yes
  R007266              JUNCTION             11.25      2.75     500.0
  R007269              JUNCTION             10.96      3.04     500.0
  R007273              JUNCTION             11.57      2.42     500.0
  R007274              JUNCTION             11.87      2.13     500.0
  R007275              JUNCTION             11.90      2.10     500.0    Yes
  R007281              JUNCTION             10.88      4.34     500.0    Yes
  R007284              JUNCTION             10.87      3.93     500.0
  R007286              JUNCTION             10.64      4.97     500.0
  R007288              JUNCTION             11.11      2.89     500.0
  R007637              JUNCTION             12.19      1.81     500.0    Yes
  R007859              JUNCTION             14.39      4.13     500.0
  R007860              JUNCTION             13.42      3.00     500.0
  R007862              JUNCTION             12.97      3.90     500.0    Yes
  R007863              JUNCTION             12.29      3.31     500.0
  R007996              JUNCTION             65.64      4.04     500.0    Yes
  R007998              JUNCTION             58.63      2.89     500.0
  R007999              JUNCTION             53.00      2.69     500.0
  R008118              JUNCTION             13.96      4.42     500.0
  R008120              JUNCTION              0.00      0.45     500.0
  R008128              JUNCTION             10.32      5.50     500.0
  R008129              JUNCTION             10.28      4.99     500.0
  R008129_fic          JUNCTION             11.36      3.91     500.0
  R008130              JUNCTION             11.71      3.56     500.0    Yes
  R008341              JUNCTION             14.26      5.17     500.0
  R008358              JUNCTION             14.62      4.75     500.0
  R008359              JUNCTION             14.95      4.35     500.0
  R008360              JUNCTION             15.17      4.18     500.0
  R008361              JUNCTION             15.36      4.12     500.0
  R008364              JUNCTION             15.69      3.78     500.0
  R008389              JUNCTION             13.97      5.12     500.0
  R008392              JUNCTION             12.39      6.22     500.0
  R008393              JUNCTION             12.79      6.63     500.0    Yes
  R008594              JUNCTION             13.88      4.76     500.0
  R008600              JUNCTION             13.51      5.75     500.0
  R008601              JUNCTION             13.87      5.36     500.0
  R008610              JUNCTION             13.80      5.32     500.0    Yes
  R008630              JUNCTION             13.44      5.88     500.0
  R008850              JUNCTION             21.79      2.32     500.0
  R008851              JUNCTION             18.07      3.38     500.0
  R008852              JUNCTION             18.44      3.23     500.0
  R008880              JUNCTION             15.66      3.76     500.0
  R009072              JUNCTION             46.53      3.60     500.0
  R009089              JUNCTION             16.43      2.93     500.0
  R009090              JUNCTION             16.61      2.83     500.0
  R009106              JUNCTION             14.79      3.77     500.0
  R009107              JUNCTION             15.58      3.81     500.0
  R009108              JUNCTION             16.02      3.80     500.0
  R009109              JUNCTION             16.34      3.76     500.0
  R009117              JUNCTION             15.83      3.59     500.0
  R009129              JUNCTION             16.08      3.24     500.0
  R009337              JUNCTION             16.38      3.76     500.0
  R009338              JUNCTION             16.36      3.77     500.0
  R009355              JUNCTION             16.47      4.23     500.0
  R009356              JUNCTION             16.73      4.95     500.0
  R009560              JUNCTION             17.04      7.47     500.0
  R009570              JUNCTION             15.42      3.97     500.0
  R009590              JUNCTION             16.15      3.60     500.0
  R009592              JUNCTION             16.00      3.25     500.0
  R009595              JUNCTION             14.54      4.16     500.0
  R009599              JUNCTION             15.54      3.33     500.0
  R009600              JUNCTION             14.85      4.22     500.0
  R010053              JUNCTION             17.28      4.01     500.0    Yes
  R010055              JUNCTION             18.09      3.83     500.0
  R010057              JUNCTION             17.84      3.98     500.0
  R010058              JUNCTION             17.73      3.96     500.0
  R010060              JUNCTION             17.72      4.09     500.0
  R010061              JUNCTION             18.52      6.89     500.0
  R010062              JUNCTION             17.39      9.32     500.0
  R010069              JUNCTION             19.45      4.40     500.0
  R010082              JUNCTION             16.63      7.49     500.0
  R014032              JUNCTION              0.74      4.10     500.0    Yes
  R014034              JUNCTION             -0.50      5.26     500.0
  R014046              JUNCTION             -1.44      6.30     500.0
  R014048              JUNCTION             -2.02     10.01     500.0
  R014051              JUNCTION             -1.41      7.74     500.0
  R014053              JUNCTION              0.35      6.03     500.0
  R014059              JUNCTION             -1.76      7.57     500.0
  R014060              JUNCTION             -1.65      7.28     500.0
  R014127              JUNCTION              2.31      5.85     500.0
  R014128              JUNCTION              2.51      6.29     500.0
  R014143              JUNCTION              8.31      4.20     500.0
  R014144              JUNCTION              8.86      3.30     500.0
  R014150              JUNCTION              9.20      3.30     500.0
  R014151              JUNCTION              9.46      3.15     500.0
  R014156              JUNCTION              9.39      3.52     500.0
  R014157              JUNCTION              9.50      3.36     500.0    Yes
  R014161              JUNCTION              9.11      3.23     500.0    Yes
  R014164              JUNCTION              8.40      3.15     500.0
  R014188              JUNCTION              8.10      2.16     500.0
  R014189              JUNCTION              2.89      7.44     500.0
  R014192              JUNCTION              0.92      7.18     500.0    Yes
  R014193              JUNCTION              2.70      6.76     500.0    Yes
  R014194              JUNCTION              2.64      4.72     500.0
  R014198              JUNCTION              2.60      6.67     500.0
  R014202              JUNCTION              1.30      5.93     500.0
  R014204              JUNCTION              1.37      4.79     500.0
  R014220              JUNCTION              2.81      5.40     500.0
  R014221              JUNCTION              2.56      6.65     500.0
  R014223              JUNCTION              1.67      4.76     500.0
  R014230              JUNCTION              1.65      4.38     500.0
  R014231              JUNCTION              1.49      4.36     500.0
  R014232              JUNCTION              1.41      4.37     500.0
  R014242              JUNCTION              1.27      4.46     500.0
  R014257              JUNCTION              0.20      5.24     500.0
  R014358              JUNCTION             38.17      3.00     500.0    Yes
  R014456              JUNCTION              1.36      5.35     500.0
  R014489              JUNCTION              1.39      3.78     500.0
  R014573              JUNCTION             37.64      3.00     500.0
  R014916              JUNCTION              0.50      5.71     500.0
  R014917              JUNCTION              0.34      5.55     500.0
  R014918              JUNCTION              0.34      4.67     500.0
  R014934              JUNCTION              2.23      4.04     500.0
  R014935              JUNCTION              1.21      4.31     500.0
  R014936              JUNCTION              1.47      4.11     500.0
  R014942              JUNCTION              6.75      5.18     500.0
  R014967              JUNCTION              1.68      4.11     500.0    Yes
  R015007              JUNCTION             22.60      3.40     500.0
  R015021              JUNCTION             27.55      3.35     500.0    Yes
  R015022              JUNCTION             26.30      3.40     500.0
  R015023              JUNCTION             23.80      2.70     500.0
  R015167              JUNCTION              5.82      4.56     500.0    Yes
  R015168              JUNCTION              5.31      4.59     500.0
  R015180              JUNCTION              4.76      3.42     500.0
  R015181              JUNCTION              4.94      3.39     500.0
  R015184              JUNCTION              2.92      3.83     500.0
  R015185              JUNCTION             36.87      3.00     500.0
  R015189              JUNCTION             30.07      6.12     500.0    Yes
  R015197              JUNCTION             22.12      3.88     500.0
  R015198              JUNCTION             23.57      2.42     500.0
  R015202              JUNCTION             27.14      6.12     500.0
  R015222              JUNCTION              6.71      5.03     500.0
  R015242              JUNCTION              4.27      4.47     500.0
  R015243              JUNCTION              4.83      3.94     500.0
  R015245              JUNCTION              5.26      2.64     500.0
  R015246              JUNCTION              5.54      2.06     500.0
  R015247              JUNCTION              5.63      2.00     500.0
  R015247_fic          JUNCTION              5.71      1.92     500.0
  R015252              JUNCTION              6.34      3.10     500.0    Yes
  R015254              JUNCTION              6.49      4.91     500.0
  R015255              JUNCTION              6.56      5.08     500.0
  R015278              JUNCTION              4.00      4.16     500.0
  R015405              JUNCTION             34.70      3.23     500.0
  R015406              JUNCTION             33.34      3.53     500.0
  R015408              JUNCTION              8.51      3.28     500.0
  R015409              JUNCTION              9.31      3.88     500.0
  R015410              JUNCTION             11.89      3.88     500.0
  R015413              JUNCTION             26.50      3.49     500.0
  R015414              JUNCTION             26.71      3.49     500.0
  R015415              JUNCTION             31.76      3.04     500.0
  R015416              JUNCTION             33.47      3.04     500.0
  R015417              JUNCTION             10.26      4.56     500.0
  R015418              JUNCTION             21.88     12.92     500.0
  R015419              JUNCTION              5.32      4.58     500.0
  R015469              JUNCTION              3.70      2.79     500.0
  R015490              JUNCTION              6.92      6.62     500.0
  R015502              JUNCTION             11.48      4.39     500.0    Yes
  R015507              JUNCTION              9.75      5.03     500.0
  R015509              JUNCTION             12.43      5.33     500.0
  R015516              JUNCTION              9.30      4.42     500.0
  R015708              JUNCTION             12.13      5.01     500.0
  R015714              JUNCTION              8.88      5.32     500.0
  R015715              JUNCTION              8.03      4.62     500.0
  R015726              JUNCTION              9.66      5.76     500.0
  R015728              JUNCTION              9.90      5.60     500.0
  R015731              JUNCTION              9.90      6.41     500.0
  R015733              JUNCTION             10.11      6.00     500.0
  R015736              JUNCTION              9.49      5.80     500.0
  R015737              JUNCTION              9.51      5.90     500.0
  R015738              JUNCTION              9.39      5.02     500.0
  R015762              JUNCTION             11.42      6.01     500.0
  R015860              JUNCTION              0.81      7.95     500.0
  R015864              JUNCTION              3.42      6.47     500.0
  R015866              JUNCTION              3.48      4.54     500.0
  R015869              JUNCTION              3.30      6.60     500.0    Yes
  R015878              JUNCTION              3.68      4.51     500.0
  R015879              JUNCTION              3.79      3.94     500.0
  R015954              JUNCTION              7.47      4.53     500.0
  R015955              JUNCTION              6.28      5.72     500.0    Yes
  R015979              JUNCTION             12.72      4.60     500.0    Yes
  R016075              JUNCTION              1.04      8.49     500.0
  R016077              JUNCTION              1.75      7.36     500.0
  R016080              JUNCTION              1.59      8.44     500.0
  R016081              JUNCTION              1.41      8.49     500.0
  R016082              JUNCTION              2.33      6.09     500.0
  R016090              JUNCTION              3.50      5.90     500.0
  R016134              JUNCTION             16.06      7.94     500.0    Yes
  R016135              JUNCTION             15.17      8.03     500.0
  R016136              JUNCTION             16.50      8.03     500.0
  R016137              JUNCTION             16.89      8.03     500.0    Yes
  R016140              JUNCTION             14.73      8.03     500.0
  R016141              JUNCTION             17.86      8.03     500.0    Yes
  R016143              JUNCTION             17.31      2.79     500.0
  R016145              JUNCTION             16.52      3.58     500.0
  R016182              JUNCTION              0.83      3.17     500.0
  R016183              JUNCTION              0.74      4.26     500.0
  R016184              JUNCTION              0.69      4.31     500.0
  R016185              JUNCTION              0.57      4.43     500.0
  R016199              JUNCTION             10.72      4.56     500.0
  R016202              JUNCTION             11.30      3.19     500.0
  R016205              JUNCTION             11.24      5.73     500.0
  R016206              JUNCTION             11.98      4.06     500.0
  R016207              JUNCTION             10.87      3.07     500.0
  R016360              JUNCTION              0.79      7.31     500.0
  R016361              JUNCTION              0.75      7.26     500.0
  R016362              JUNCTION              0.70      7.80     500.0
  R016363              JUNCTION              0.58      7.92     500.0
  R016367              JUNCTION              3.17      5.33     500.0
  R016369              JUNCTION              0.45      4.55     500.0
  R016370              JUNCTION              0.43      4.57     500.0
  R016428              JUNCTION             20.89      6.53     500.0
  R016462              JUNCTION             13.95      4.25     500.0
  R016553              JUNCTION              1.10      7.50     500.0
  R016572              JUNCTION              0.05      6.72     500.0
  R016577              JUNCTION              0.58      6.50     500.0
  R016579              JUNCTION              0.00      0.90     500.0
  R016581              JUNCTION              7.90      3.79     500.0    Yes
  R016591              JUNCTION              7.25      3.79     500.0
  R016593              JUNCTION              6.09      3.79     500.0
  R016595              JUNCTION              3.25      5.18     500.0
  R016602              JUNCTION              3.18      8.68     500.0
  R016604              JUNCTION              6.23      4.39     500.0
  R016605              JUNCTION              3.64      4.08     500.0
  R016611              JUNCTION             25.20      6.57     500.0
  R016624              JUNCTION              0.25      3.75     500.0    Yes
  R016625              JUNCTION              0.59      3.41     500.0    Yes
  R016630              JUNCTION              0.01      3.99     500.0
  R016643              JUNCTION              1.11      2.90     500.0
  R016645              JUNCTION              1.07      2.93     500.0
  R016648              JUNCTION              1.10      2.90     500.0
  R016649              JUNCTION              1.09      2.90     500.0
  R016650              JUNCTION              1.06      2.94     500.0
  R016651              JUNCTION              1.03      2.97     500.0
  R016652              JUNCTION              0.90      3.10     500.0
  R016653              JUNCTION              0.84      3.16     500.0
  R016671              JUNCTION             -0.04      4.04     500.0
  R016691              JUNCTION             13.42      4.63     500.0
  R016702              JUNCTION             11.96      6.20     500.0
  R016712              JUNCTION             11.49      6.19     500.0
  R016713              JUNCTION             12.78      5.47     500.0
  R016807              JUNCTION              3.52      4.71     500.0
  R016808              JUNCTION              2.93      7.32     500.0
  R016808_fic          JUNCTION              2.93      7.32     500.0
  R016809              JUNCTION              3.40      9.00     500.0
  R016810              JUNCTION              3.33      8.95     500.0
  R016815              JUNCTION              7.04      3.79     500.0
  R016817              JUNCTION             10.85      3.00     500.0
  R016820              JUNCTION              3.87      4.90     500.0
  R016821              JUNCTION              5.57      5.49     500.0
  R016822              JUNCTION              5.48      3.45     500.0    Yes
  R016828              JUNCTION              4.39      4.30     500.0
  R016830              JUNCTION              3.96      4.64     500.0
  R016831              JUNCTION              3.87      5.22     500.0
  R016837              JUNCTION              4.25      3.72     500.0
  R016838              JUNCTION              4.21      3.56     500.0
  R016842              JUNCTION              4.26      3.78     500.0
  R016845              JUNCTION              4.01      3.10     500.0
  R016849              JUNCTION              1.29      5.90     500.0
  R016855              JUNCTION             -0.24      4.24     500.0
  R016870              JUNCTION             33.58      3.48     500.0
  R016871              JUNCTION             39.52      3.48     500.0
  R016872              JUNCTION             34.11      3.48     500.0
  R016876              JUNCTION             23.57      3.48     500.0
  R016878              JUNCTION             10.67      3.48     500.0    Yes
  R016880              JUNCTION              5.54      3.48     500.0
  R016881              JUNCTION              4.33      3.30     500.0
  R016901              JUNCTION             30.77      6.57     500.0
  R016902              JUNCTION             32.78      6.57     500.0
  R016915              JUNCTION              2.44      4.07     500.0
  R016925              JUNCTION             11.94      4.55     500.0
  R016940              JUNCTION             12.31      4.15     500.0
  R016943              JUNCTION             12.98      4.63     500.0
  R016944              JUNCTION             12.67      4.68     500.0
  R016945              JUNCTION             12.21      4.63     500.0    Yes
  R017039              JUNCTION              1.06      6.47     500.0
  R017069              JUNCTION              1.70      4.85     500.0
  R017099              JUNCTION              1.44      2.56     500.0
  R017109              JUNCTION              1.13      2.87     500.0
  R017148              JUNCTION             39.52      3.48     500.0
  R017219              JUNCTION             12.75      3.08     500.0
  R017299              JUNCTION              2.64      4.28     500.0
  R017304              JUNCTION              2.81      4.17     500.0
  R017529              JUNCTION              4.14      4.17     500.0
  R017534              JUNCTION              2.10      5.62     500.0
  R017535              JUNCTION              1.98      5.56     500.0
  R017536              JUNCTION              1.86      5.35     500.0    Yes
  R017537              JUNCTION              1.82      4.74     500.0
  R017546              JUNCTION              4.43      3.65     500.0
  R017547              JUNCTION              4.89      3.42     500.0
  R017548              JUNCTION              5.08      3.36     500.0
  R017550              JUNCTION              4.98      3.58     500.0
  R017556              JUNCTION              5.60      3.71     500.0
  R017559              JUNCTION              5.27      3.41     500.0    Yes
  R017561              JUNCTION              5.40      3.50     500.0
  R017562              JUNCTION              5.91      3.57     500.0
  R017563              JUNCTION              6.02      3.48     500.0
  R021713              JUNCTION              5.72      7.44     500.0
  R021733              JUNCTION              1.82      3.80     500.0
  R021734              JUNCTION              2.01      3.52     500.0
  R021735              JUNCTION              1.46      4.56     500.0
  R021747              JUNCTION              1.62      3.79     500.0
  R021752              JUNCTION              0.61      4.26     500.0
  R021755              JUNCTION              1.11      4.39     500.0
  R021756              JUNCTION              1.56      3.48     500.0
  R021773              JUNCTION             -0.47      7.12     500.0
  R021774              JUNCTION             -0.30      7.17     500.0
  R021784              JUNCTION             -0.83      7.29     500.0
  R021793              JUNCTION             -0.69      7.01     500.0
  R021806              JUNCTION              8.62      5.60     500.0
  R021812              JUNCTION              4.54      4.19     500.0
  R021830              JUNCTION              3.32      8.56     500.0
  R021836              JUNCTION              5.90      2.87     500.0
  R021837              JUNCTION              4.96      3.79     500.0
  R021838              JUNCTION              6.44      3.62     500.0    Yes
  R021911              JUNCTION              8.38      4.16     500.0
  R021912              JUNCTION              8.45      4.12     500.0
  R021917              JUNCTION              5.95      6.98     500.0
  R021918              JUNCTION              8.98      3.54     500.0
  R021922              JUNCTION              7.18      5.26     500.0
  R021923              JUNCTION              5.09      8.28     500.0
  R022008              JUNCTION              1.64      3.96     500.0
  R022047              JUNCTION              0.30      5.32     500.0
  R022049              JUNCTION             -0.24      6.50     500.0
  R022069              JUNCTION             -0.23      5.30     500.0
  R022198              JUNCTION              1.13      4.19     500.0
  R022204              JUNCTION              0.84      4.36     500.0
  R022215              JUNCTION              1.98      3.29     500.0
  R022216              JUNCTION              1.81      3.45     500.0
  R022217              JUNCTION              1.58      3.57     500.0
  R022219              JUNCTION             -0.21      5.52     500.0
  R022220              JUNCTION              0.48      4.90     500.0
  R022222              JUNCTION              1.91      3.74     500.0
  R022271              JUNCTION             -0.14      6.34     500.0
  R022277              JUNCTION              0.23      5.12     500.0
  R022279              JUNCTION              0.21      5.18     500.0
  R022337              JUNCTION              7.69      4.79     500.0
  R022346              JUNCTION              7.78      4.64     500.0    Yes
  R022350              JUNCTION              6.91      3.37     500.0
  R022358              JUNCTION              7.62      5.45     500.0
  R022359              JUNCTION              7.29      5.54     500.0
  R022364              JUNCTION              6.13      4.54     500.0
  R022365              JUNCTION              4.07      7.12     500.0
  R022366              JUNCTION              5.49      4.60     500.0
  R022368              JUNCTION              5.46      5.01     500.0
  R022370              JUNCTION              5.23      4.50     500.0
  R022371              JUNCTION              4.72      4.12     500.0
  R022446              JUNCTION             -0.50      6.48     500.0
  R022447              JUNCTION             -0.51      6.73     500.0
  R022456              JUNCTION             -1.20     10.20     500.0
  R022458              JUNCTION             -0.74      6.74     500.0
  R022459              JUNCTION             -1.31     10.31     500.0
  R022465              JUNCTION             -2.87     10.36     500.0
  R022466              JUNCTION             -3.05     10.54     500.0
  R022467              JUNCTION             -1.66     10.66     500.0
  R022468              JUNCTION             -1.59     13.85     500.0
  R022469              JUNCTION             -3.27     10.75     500.0
  R022479              JUNCTION             -3.48     10.97     500.0
  R022561              JUNCTION              3.87      7.10     500.0
  R022565              JUNCTION              6.21      3.31     500.0
[...]
  UNI_32869               1.00   0.00  0.00  0.00  1.00  0.00  0.00  0.00  0.00  0.00
  UNI_32877               1.00   0.00  0.00  0.00  0.00  0.00  0.00  1.00  0.00  0.00
  UNI_32879               1.00   0.00  0.00  0.00  0.00  0.00  0.00  1.00  0.00  0.00
  UNI_32881               1.00   0.00  0.00  0.00  1.00  0.00  0.00  0.00  1.00  0.00
  UNI_33594               1.00   1.00  0.00  0.00  0.00  0.00  0.00  0.00  0.00  0.00
  UNI_33595               1.00   0.00  1.00  0.00  0.00  0.00  0.00  0.00  0.00  0.00
  UNI_33596               1.00   0.00  0.00  0.00  1.00  0.00  0.00  0.00  1.00  0.00
  UNI_33597               1.00   0.00  0.00  0.00  0.00  0.00  0.00  1.00  0.00  0.00
  UNI_33598               1.00   1.00  0.00  0.00  0.00  0.00  0.00  0.00  0.00  0.00
  UNI_33599               1.00   1.00  0.00  0.00  0.00  0.00  0.00  0.00  0.00  0.00
  UNI_33601               1.00   1.00  0.00  0.00  0.00  0.00  0.00  0.00  0.00  0.00
  UNI_33602               1.00   0.00  0.00  0.00  0.00  0.00  0.00  1.00  0.00  0.00
  UNI_33603               1.00   1.00  0.00  0.00  0.00  0.00  0.00  0.00  0.00  0.00
  UNI_33604               1.00   1.00  0.00  0.00  0.00  0.00  0.00  0.00  0.00  0.00
  UNI_33607               1.00   1.00  0.00  0.00  0.00  0.00  0.00  0.00  0.00  0.00
  UNI_33610               1.00   1.00  0.00  0.00  0.00  0.00  0.00  0.00  0.00  0.00
  UNI_33613               1.00   1.00  0.00  0.00  0.00  0.00  0.00  0.00  0.00  0.00
  UNI_33617               1.00   1.00  0.00  0.00  0.00  0.00  0.00  0.00  0.00  0.00
  UNI_33619               1.00   0.00  0.00  0.00  1.00  0.00  0.00  0.00  1.00  0.00
  UNI_33623               1.00   1.00  0.00  0.00  0.00  0.00  0.00  0.00  0.00  0.00
  UNI_33855               1.00   1.00  0.00  0.00  0.00  0.00  0.00  0.00  0.00  0.00
  UNI_33883               1.00   0.00  0.00  0.00  1.00  0.00  0.00  0.00  0.00  0.00
  UNI_33892               1.00   0.00  0.00  0.00  1.00  0.00  0.00  0.00  0.00  0.00
  UNI_34099               1.00   0.00  0.00  0.00  1.00  0.00  0.00  0.00  0.00  0.00
  UNI_34145               1.00   0.00  0.00  0.00  0.00  0.00  0.00  1.00  0.00  0.00
  UNI_34149               1.00   0.00  0.00  0.00  0.00  0.00  0.00  1.00  0.00  0.00
  UNI_34430               1.25   0.00  0.00  0.00  0.00  1.00  0.00  0.00  0.00  0.00
  UNI_34623               3.37   1.00  0.00  0.00  0.00  0.00  0.00  0.00  0.00  0.00
  UNI_34632               1.79   1.00  0.00  0.00  0.00  0.00  0.00  0.00  0.00  0.00
  UNI_34937               7.11   0.00  0.00  0.00  0.00  0.00  0.00  1.00  0.00  0.00
  UNI_35769               2.29   0.00  0.00  0.00  1.00  0.00  0.00  0.00  0.38  0.00
  UNI_36183               1.00   1.00  0.00  0.00  0.00  0.00  0.00  0.00  0.00  0.00
  UNI_36197              18.31   1.00  0.00  0.00  0.00  0.00  0.00  0.00  0.00  0.00
  UNI_36198               4.44   1.00  0.00  0.00  0.00  0.00  0.00  0.00  0.00  0.00
  UNI_36204               2.33   0.00  0.00  0.00  0.00  1.00  0.00  0.00  0.00  0.00
  UNI_36210               9.05   1.00  0.00  0.00  0.00  0.00  0.00  0.00  0.00  0.00
  UNI_36226               1.00   0.00  0.00  0.00  0.00  1.00  0.00  0.00  0.00  0.00
  UNI_36227               1.00   0.00  0.00  0.00  0.00  1.00  0.00  0.00  0.00  0.00
  UNI_36623               2.96   1.00  0.00  0.00  0.00  0.00  0.00  0.00  0.00  0.00
  UNI_36670               1.16   0.00  0.00  0.00  0.00  0.00  0.00  1.00  0.00  0.00
  UNI_37306               1.00   0.00  0.00  0.00  1.00  0.00  0.00  0.00  0.00  0.00
  UNI_37739               1.00   0.00  0.00  0.00  0.00  0.00  0.00  1.00  0.00  0.00
  UNI_37763               3.19   0.00  0.00  0.00  0.00  1.00  0.00  0.00  0.00  0.00
  UNI_37764               1.00   0.00  0.00  0.00  0.00  1.00  0.00  0.00  1.00  0.00
  UNI_37765               1.18   0.00  0.00  0.00  0.00  1.00  0.00  0.00  0.00  0.00
  UNI_37768               4.28   0.00  0.00  0.00  0.00  1.00  0.00  0.00  0.00  0.00
  UNI_37784               4.02   0.00  0.00  0.00  0.00  1.00  0.00  0.00  0.01  0.00
  UNI_37984               1.00   1.00  0.00  0.00  0.00  0.00  0.00  0.00  0.00  0.00
  UNI_37997               1.40   0.00  0.00  0.00  0.00  1.00  0.00  0.00  0.00  0.00
  UNI_38000               8.48   0.00  0.00  0.00  0.00  1.00  0.00  0.00  1.00  0.00
  UNI_38011               6.46   0.00  0.00  0.00  0.00  1.00  0.00  0.00  0.00  0.00
  UNI_38226               2.83   1.00  0.00  0.00  0.00  0.00  0.00  0.00  0.00  0.00
  UNI_38382               1.00   1.00  0.00  0.00  0.00  0.00  0.00  0.00  0.00  0.00
  UNI_38383               1.00   1.00  0.00  0.00  0.00  0.00  0.00  0.00  0.00  0.00
  UNI_40350               1.00   0.00  0.00  0.00  0.00  0.00  0.00  1.00  0.00  0.00
  UNI_40559               1.00   0.00  0.00  0.00  0.00  0.00  0.00  1.00  0.00  0.00
  UNI_40573               1.00   0.00  0.00  0.00  1.00  0.00  0.00  0.00  1.00  0.00
  UNI_40588               1.00   0.06  0.00  0.00  0.94  0.00  0.00  0.00  0.00  0.00
  UNI_40596               1.00   0.06  0.00  0.00  0.94  0.00  0.00  0.00  0.94  0.00
  UNI_40827               1.00   0.00  0.06  0.00  0.94  0.00  0.00  0.00  0.94  0.00
  UNI_40828               1.00   0.00  0.00  0.00  1.00  0.00  0.00  0.00  1.00  0.00
  UNI_40829               1.00   0.00  0.00  0.00  1.00  0.00  0.00  0.00  0.00  0.00
  UNI_40850               1.00   1.00  0.00  0.00  0.00  0.00  0.00  0.00  0.00  0.00
  UNI_41834               1.00   1.00  0.00  0.00  0.00  0.00  0.00  0.00  0.00  0.00
  UNI_41835               1.00   1.00  0.00  0.00  0.00  0.00  0.00  0.00  0.00  0.00
  UNI_41845               1.00   1.00  0.00  0.00  0.00  0.00  0.00  0.00  0.00  0.00
  UNI_464353              1.20   1.00  0.00  0.00  0.00  0.00  0.00  0.00  0.00  0.00
  UNI_5277                1.00   0.00  0.00  0.00  0.00  0.00  0.00  1.00  0.00  0.00
  UNI_5278                1.00   0.00  0.00  0.00  0.00  0.00  0.00  1.00  0.00  0.00
  UNI_537                 1.00   0.00  0.00  0.00  0.00  1.00  0.00  0.00  0.00  0.00
  UNI_53878               2.53   1.00  0.00  0.00  0.00  0.00  0.00  0.00  0.00  0.00
  UNI_54372               1.00   1.00  0.00  0.00  0.00  0.00  0.00  0.00  0.00  0.00
  UNI_545                 1.96   0.00  0.00  0.00  0.00  1.00  0.00  0.00  0.00  0.00
  UNI_5523                1.00   0.00  0.00  0.00  0.00  0.00  0.00  1.00  0.00  0.00
  UNI_5524                1.00   0.00  0.01  0.00  0.99  0.00  0.00  0.00  1.00  0.00
  UNI_5525                1.00   0.00  0.00  0.00  0.72  0.28  0.00  0.00  0.03  0.00
  UNI_56924               1.00   1.00  0.00  0.00  0.00  0.00  0.00  0.00  0.00  0.00
  UNI_56966               1.00   1.00  0.00  0.00  0.00  0.00  0.00  0.00  0.00  0.00
  UNI_57079               5.53   0.00  0.00  0.00  0.00  1.00  0.00  0.00  0.00  0.00
  UNI_57088               8.34   0.00  0.00  0.00  1.00  0.00  0.00  0.00  1.00  0.00
  UNI_57318               1.00   1.00  0.00  0.00  0.00  0.00  0.00  0.00  0.00  0.00
  UNI_57320               1.00   1.00  0.00  0.00  0.00  0.00  0.00  0.00  0.00  0.00
  UNI_57361               1.00   0.00  0.00  0.00  1.00  0.00  0.00  0.00  0.00  0.00
  UNI_574756              1.00   0.00  0.00  0.00  0.00  0.00  0.00  1.00  0.00  0.00
  UNI_574765              1.00   0.00  0.00  0.00  0.00  0.00  0.00  1.00  0.00  0.00
  UNI_575074              1.00   0.00  0.00  0.00  0.00  0.00  0.00  1.00  0.00  0.00
  UNI_575085              1.00   0.00  0.00  0.00  1.00  0.00  0.00  0.00  1.00  0.00
  UNI_57704               1.00   0.20  0.00  0.00  0.00  0.00  0.00  0.80  0.00  0.00
  UNI_58711               1.15   0.00  0.01  0.00  0.99  0.00  0.00  0.00  0.99  0.00
  UNI_58800               1.00   0.00  0.00  0.00  1.00  0.00  0.00  0.00  1.00  0.00
  UNI_58816               1.22   0.00  0.00  0.00  1.00  0.00  0.00  0.00  0.59  0.00
  UNI_58833               1.00   0.00  0.00  0.00  1.00  0.00  0.00  0.00  0.00  0.00
  UNI_59295               1.37   0.00  0.00  0.00  1.00  0.00  0.00  0.00  0.00  0.00
  UNI_59329               1.00   1.00  0.00  0.00  0.00  0.00  0.00  0.00  0.00  0.00
  UNI_59529               1.00   0.00  0.00  0.00  1.00  0.00  0.00  0.00  1.00  0.00
  UNI_59530               1.00   0.00  0.00  0.00  1.00  0.00  0.00  0.00  1.00  0.00
  UNI_59985               1.12   0.00  0.00  0.00  0.80  0.00  0.00  0.20  0.00  0.00
  UNI_60011               1.00   0.00  0.00  0.00  1.00  0.00  0.00  0.00  0.01  0.00
  UNI_60019               1.00   0.00  1.00  0.00  0.00  0.00  0.00  0.00  0.00  0.00
  UNI_6002922             1.20   1.00  0.00  0.00  0.00  0.00  0.00  0.00  0.00  0.00
  UNI_602600              1.04   0.00  0.00  0.00  0.00  0.70  0.00  0.30  0.61  0.00
  UNI_602604              1.00   0.00  0.00  0.00  0.00  0.00  0.00  1.00  0.00  0.00
  UNI_602607              1.00   0.00  0.00  0.00  1.00  0.00  0.00  0.00  0.00  0.00
  UNI_602608              1.45   0.00  0.00  0.00  1.00  0.00  0.00  0.00  0.00  0.00
  UNI_603885              1.00   1.00  0.00  0.00  0.00  0.00  0.00  0.00  0.00  0.00
  UNI_603887              1.00   1.00  0.00  0.00  0.00  0.00  0.00  0.00  0.00  0.00
  UNI_603888              1.00   1.00  0.00  0.00  0.00  0.00  0.00  0.00  0.00  0.00
  UNI_604193              1.00   1.00  0.00  0.00  0.00  0.00  0.00  0.00  0.00  0.00
  UNI_604194              1.00   1.00  0.00  0.00  0.00  0.00  0.00  0.00  0.00  0.00
  UNI_604198              1.00   1.00  0.00  0.00  0.00  0.00  0.00  0.00  0.00  0.00
  UNI_604199              1.00   1.00  0.00  0.00  0.00  0.00  0.00  0.00  0.00  0.00
  UNI_605482              1.00   1.00  0.00  0.00  0.00  0.00  0.00  0.00  0.00  0.00
  UNI_605483              1.00   1.00  0.00  0.00  0.00  0.00  0.00  0.00  0.00  0.00
  UNI_605805              2.66   1.00  0.00  0.00  0.00  0.00  0.00  0.00  0.00  0.00
  UNI_605806              1.55   1.00  0.00  0.00  0.00  0.00  0.00  0.00  0.00  0.00
  UNI_605807              1.00   1.00  0.00  0.00  0.00  0.00  0.00  0.00  0.00  0.00
  UNI_606116              1.00   1.00  0.00  0.00  0.00  0.00  0.00  0.00  0.00  0.00
  UNI_606117              3.60   1.00  0.00  0.00  0.00  0.00  0.00  0.00  0.00  0.00
  UNI_606118              1.00   1.00  0.00  0.00  0.00  0.00  0.00  0.00  0.00  0.00
  UNI_606119              1.00   1.00  0.00  0.00  0.00  0.00  0.00  0.00  0.00  0.00
  UNI_608043              1.82   0.00  0.00  0.00  0.00  0.00  0.00  1.00  0.00  0.00
  UNI_609322              1.00   1.00  0.00  0.00  0.00  0.00  0.00  0.00  0.00  0.00
  UNI_609323              1.00   1.00  0.00  0.00  0.00  0.00  0.00  0.00  0.00  0.00
  UNI_609324              1.00   0.00  0.00  0.00  1.00  0.00  0.00  0.00  1.00  0.00
  UNI_609327              1.00   0.00  0.00  0.00  1.00  0.00  0.00  0.00  0.00  0.00
  UNI_609957              1.00   0.00  0.00  0.00  0.00  0.00  0.00  1.00  0.00  0.00
  UNI_609958              1.00   0.00  0.00  0.00  0.00  0.00  0.00  1.00  0.00  0.00
  UNI_610275              1.00   0.00  0.00  0.00  1.00  0.00  0.00  0.00  1.00  0.00
  UNI_610284              1.00   0.00  0.00  0.00  1.00  0.00  0.00  0.00  0.00  0.00
  UNI_681321              1.00   1.00  0.00  0.00  0.00  0.00  0.00  0.00  0.00  0.00
  UNI_682287              1.00   0.00  0.00  0.00  1.00  0.00  0.00  0.00  0.00  0.00
  UNI_7018                1.00   1.00  0.00  0.00  0.00  0.00  0.00  0.00  0.00  0.00
  UNI_7019                1.00   1.00  0.00  0.00  0.00  0.00  0.00  0.00  0.00  0.00
  UNI_7020                1.00   1.00  0.00  0.00  0.00  0.00  0.00  0.00  0.00  0.00
  UNI_7021                1.00   1.00  0.00  0.00  0.00  0.00  0.00  0.00  0.00  0.00
  UNI_7023                1.00   1.00  0.00  0.00  0.00  0.00  0.00  0.00  0.00  0.00
  UNI_7024                1.00   1.00  0.00  0.00  0.00  0.00  0.00  0.00  0.00  0.00
  UNI_7025                1.00   1.00  0.00  0.00  0.00  0.00  0.00  0.00  0.00  0.00
  UNI_85301               1.00   0.00  0.00  0.00  0.00  1.00  0.00  0.00  0.02  0.00
  UNI_8673                1.00   0.00  0.00  0.00  0.00  1.00  0.00  0.00  0.00  0.00
  UNI_8674                1.00   0.00  0.00  0.00  1.00  0.00  0.00  0.00  0.58  0.00
  UNI_8693                1.00   0.00  0.00  0.00  1.00  0.00  0.00  0.00  0.00  0.00
  UNI_8701                1.00   0.00  0.00  0.00  0.00  0.00  0.00  1.00  0.00  0.00
  UNI_8702                1.00   0.00  0.00  0.00  0.00  0.00  0.00  1.00  0.00  0.00
  UNI_8703                1.00   0.00  0.00  0.00  0.00  0.00  0.00  1.00  0.00  0.00
  UNI_8704                1.00   0.00  0.00  0.00  0.00  0.00  0.00  1.00  0.00  0.00
  UNI_8946                1.00   1.00  0.00  0.00  0.00  0.00  0.00  0.00  0.00  0.00
  UNI_8948                1.00   1.00  0.00  0.00  0.00  0.00  0.00  0.00  0.00  0.00
  UNI_8949                1.00   1.00  0.00  0.00  0.00  0.00  0.00  0.00  0.00  0.00
  UNI_8950                1.00   1.00  0.00  0.00  0.00  0.00  0.00  0.00  0.00  0.00
  UNI_8951                1.00   1.00  0.00  0.00  0.00  0.00  0.00  0.00  0.00  0.00
  UNI_908529              1.00   1.00  0.00  0.00  0.00  0.00  0.00  0.00  0.00  0.00
  UNI_908531              1.00   1.00  0.00  0.00  0.00  0.00  0.00  0.00  0.00  0.00
  UNI_910171              1.00   0.00  0.00  0.00  0.00  1.00  0.00  0.00  1.00  0.00
  UNI_912370              2.85   0.00  0.00  0.00  1.00  0.00  0.00  0.00  0.00  0.00
  UNI_913633              1.00   1.00  0.00  0.00  0.00  0.00  0.00  0.00  0.00  0.00
  UNI_9172                1.00   1.00  0.00  0.00  0.00  0.00  0.00  0.00  0.00  0.00
  UNI_9187                1.00   0.00  0.00  0.00  1.00  0.00  0.00  0.00  1.00  0.00
  UNI_9205                1.00   0.00  0.00  0.00  1.00  0.00  0.00  0.00  1.00  0.00
  UNI_9207                1.00   0.01  0.00  0.00  0.00  0.00  0.00  0.99  0.00  0.00
  UNI_9218                1.00   1.00  0.00  0.00  0.00  0.00  0.00  0.00  0.00  0.00
  UNI_9223                1.00   0.00  0.00  0.00  0.00  0.00  0.00  1.00  0.00  0.00
  UNI_937987              2.82   0.00  0.00  0.00  0.00  0.00  0.00  1.00  0.00  0.00
  UNI_941797              5.19   0.00  0.00  0.00  0.00  0.88  0.00  0.12  0.88  0.00
  UNI_9435                1.02   0.01  0.00  0.00  0.00  0.00  0.00  0.99  0.00  0.00
  UNI_9467                1.00   0.01  0.00  0.00  0.00  0.00  0.00  0.99  0.00  0.00
  UNI_9468                1.00   0.01  0.00  0.00  0.00  0.00  0.00  0.99  0.00  0.00
  UNI_9469                1.00   0.01  0.00  0.00  0.00  0.00  0.00  0.99  0.00  0.00
  UNI_9476                1.00   0.01  0.00  0.00  0.00  0.00  0.00  0.99  0.00  0.00
  UNI_9479                1.00   1.00  0.00  0.00  0.00  0.00  0.00  0.00  0.00  0.00
  UNI_9482                1.00   0.01  0.27  0.00  0.72  0.00  0.00  0.00  0.99  0.00
  UNI_95699               1.00   0.00  0.00  0.00  1.00  0.00  0.00  0.00  0.00  0.00
  UNI_95707               1.00   0.00  0.00  0.00  0.00  0.00  0.00  1.00  0.00  0.00
  UNI_9672                1.00   0.01  0.99  0.00  0.00  0.00  0.00  0.00  0.00  0.00
  UNI_9709                1.00   0.00  0.00  0.00  0.00  0.00  0.00  1.00  0.00  0.00
  UNI_9710                1.00   0.00  0.00  0.00  0.00  0.00  0.00  1.00  0.00  0.00
  UNI_9711                1.00   0.00  0.00  0.00  0.00  0.00  0.00  1.00  0.00  0.00
  UNI_97408               2.29   0.00  0.00  0.00  1.00  0.00  0.00  0.00  1.00  0.00
  UNI_979559              6.39   1.00  0.00  0.00  0.00  0.00  0.00  0.00  0.00  0.00
  UNI_981157              1.00   0.00  0.00  0.00  0.00  1.00  0.00  0.00  1.00  0.00
  UNI_9932                1.00   1.00  0.00  0.00  0.00  0.00  0.00  0.00  0.00  0.00
  UNI_997807              2.51   1.00  0.00  0.00  0.00  0.00  0.00  0.00  0.00  0.00
  UNI_9985                1.00   1.00  0.00  0.00  0.00  0.00  0.00  0.00  0.00  0.00
  x1_158L                 1.00   0.00  0.00  0.00  0.00  1.00  0.00  0.00  0.00  0.00
  X1_190L                 1.00   0.00  0.00  0.00  1.00  0.00  0.00  0.00  0.00  0.00
  x1_260L                 1.00   0.00  0.00  0.00  1.00  0.00  0.00  0.00  0.00  0.00
  x8_28                   1.00   0.00  0.00  0.00  1.00  0.00  0.00  0.00  0.00  0.00
  xDOM_98569              3.53   0.00  0.00  0.00  0.00  0.00  0.00  1.00  0.00  0.00
  
  
  *************************
  Conduit Surcharge Summary
  *************************
  
  ----------------------------------------------------------------------------
                                                           Hours        Hours 
                         --------- Hours Full --------   Above Full   Capacity
  Conduit                Both Ends  Upstream  Dnstream   Normal Flow   Limited
  ----------------------------------------------------------------------------
  1_138L                      0.01      0.01      0.01    100.46         0.01
  C21                         0.01      0.01      0.01    417.53         0.01
  E-3-34-20                   0.01      0.01      0.01     90.34         0.01
  UNI_12624                   0.01      0.01    557.90      0.01         0.01
  
  
  ***************
  Pumping Summary
  ***************
  
  ---------------------------------------------------------------------------------------------------------
                                                  Min       Avg       Max     Total     Power    % Time Off
                        Percent   Number of      Flow      Flow      Flow    Volume     Usage    Pump Curve
  Pump                 Utilized   Start-Ups       CMS       CMS       CMS  10^6 ltr     Kw-hr    Low   High
  ---------------------------------------------------------------------------------------------------------
  Pompe-Beauport         100.00           1      0.00      0.04      0.05   118.234   7092.57    0.0  100.0
  Pompe-Montmorency      100.00           1      0.00      0.02      0.03    64.530    957.55    0.0  100.0
  U001                   100.00           1      0.00      0.04      0.05   108.979    836.29    0.0  100.0
  U002_Limoilou            0.00           0      0.00      0.00      0.00     0.000      0.00    0.0    0.0
  U002_Pompe_IREU         99.99           1      0.00      0.93      1.22  2441.084  41871.43    0.0  100.0
  U003_Nord_Ouest         99.97           1      0.00      0.19      0.26   499.396   8180.81    0.0  100.0
  U003_PP_Pluvial          0.00           0      0.00      0.00      0.00     0.000      0.00    0.0    0.0
  U004                    99.97           1      0.00      1.36      1.54  3631.800  30973.29    0.0  100.0
  U017_P                  99.97           1      0.00      0.03      0.04    85.602     39.97    0.0  100.0
  U025_Vanier             99.99           1      0.00      0.03      0.04    86.218   1245.94    0.0  100.0
  U040_Chanoine_cote       0.00           0      0.00      0.00      0.00     0.000      0.00    0.0    0.0
  U208_Anse_A_Cartier      0.00           0      0.00      0.00      0.00     0.000      0.00    0.0    0.0
  U211_Lairet              0.00           0      0.00      0.00      0.00     0.000      0.00    0.0    0.0
  U213_Roc_Amadour         0.00           0      0.00      0.00      0.00     0.000      0.00    0.0    0.0
  U215_Laurentien          0.00           0      0.00      0.00      0.00     0.000      0.00    0.0    0.0
  U218_Victoria            0.00           0      0.00      0.00      0.00     0.000      0.00    0.0    0.0
  U221_-_Sacre-Coeur       0.00           0      0.00      0.00      0.00     0.000      0.00    0.0    0.0
  U226_-_St-Sacrement      0.00           0      0.00      0.00      0.00     0.000      0.00    0.0    0.0
  U229_Maizerets           0.00           0      0.00      0.00      0.00     0.000      0.00    0.0    0.0
  U241_Pierre_Bertrand     0.00           0      0.00      0.00      0.00     0.000      0.00    0.0    0.0
  U401_P                 100.00           1      0.00      0.01      0.01    13.924    139.24    0.0  100.0
  

  Analysis begun on:  Wed Sep  6 00:37:52 2023
  Analysis ended on:  Wed Sep  6 01:06:15 2023
  Total elapsed time: 00:28:23